320
cell 18.600 22.200  8.582
O   0.00000000   0.00000000   0.00000000
C   0.80686406   1.09372612  -0.27914155
O   1.91435446   0.83151045  -1.03957836
C   1.85194371  -0.54696520  -1.36085170
C   0.70478161  -1.15117239  -0.50867824
O   0.53071976   2.30698003  -0.06599672
H  -0.03958819  -1.78379238  -0.96700915
H   1.70785755  -0.65044686  -2.47887439
H   2.81729667  -1.01773392  -1.06099133
H   1.06977518  -1.79309900   0.34562544
O   7.42971898  -0.00000000   0.15132048
C   6.41549765   0.86313401  -0.28872741
O   5.27257127   0.15114587  -0.57454437
C   5.58003100  -1.26722095  -0.35090736
C   6.84534215  -1.29890209   0.50093330
O   6.47311073   2.02748703  -0.54000510
H   6.51491898  -1.26353064   1.48279378
H   4.73323117  -1.79810611   0.14640571
H   5.87689875  -1.58782602  -1.38093190
H   7.56688806  -2.07820820   0.29199597
O   0.00000000   5.55000000   0.00000000
C   0.80686406   6.64372612  -0.27914155
O   1.91435446   6.38151045  -1.03957836
C   1.85194371   5.00303480  -1.36085170
C   0.70478161   4.39882761  -0.50867824
O   0.53071976   7.85698003  -0.06599672
H  -0.03958819   3.76620762  -0.96700915
H   1.70785755   4.89955314  -2.47887439
H   2.81729667   4.53226608  -1.06099133
H   1.06977518   3.75690100   0.34562544
O   7.42971898   5.55000000   0.15132048
C   6.41549765   6.41313401  -0.28872741
O   5.27257127   5.70114587  -0.57454437
C   5.58003100   4.28277905  -0.35090736
C   6.84534215   4.25109791   0.50093330
O   6.47311073   7.57748703  -0.54000510
H   6.51491898   4.28646936   1.48279378
H   4.73323117   3.75189389   0.14640571
H   5.87689875   3.96217398  -1.38093190
H   7.56688806   3.47179180   0.29199597
O   0.00000000   0.00000000   4.29100000
C   0.80686406   1.09372612   4.01185845
O   1.91435446   0.83151045   3.25142164
C   1.85194371  -0.54696520   2.93014830
C   0.70478161  -1.15117239   3.78232176
O   0.53071976   2.30698003   4.22500328
H  -0.03958819  -1.78379238   3.32399085
H   1.70785755  -0.65044686   1.81212561
H   2.81729667  -1.01773392   3.23000867
H   1.06977518  -1.79309900   4.63662544
O   7.42971898   0.00000000   4.44232048
C   6.41549765   0.86313401   4.00227259
O   5.27257127   0.15114587   3.71645563
C   5.58003100  -1.26722095   3.94009264
C   6.84534215  -1.29890209   4.79193330
O   6.47311073   2.02748703   3.75099490
H   6.51491898  -1.26353064   5.77379378
H   4.73323117  -1.79810611   4.43740571
H   5.87689875  -1.58782602   2.91006810
H   7.56688806  -2.07820820   4.58299597
O   0.00000000   5.55000000   4.29100000
C   0.80686406   6.64372612   4.01185845
O   1.91435446   6.38151045   3.25142164
C   1.85194371   5.00303480   2.93014830
C   0.70478161   4.39882761   3.78232176
O   0.53071976   7.85698003   4.22500328
H  -0.03958819   3.76620762   3.32399085
H   1.70785755   4.89955314   1.81212561
H   2.81729667   4.53226608   3.23000867
H   1.06977518   3.75690100   4.63662544
O   7.42971898   5.55000000   4.44232048
C   6.41549765   6.41313401   4.00227259
O   5.27257127   5.70114587   3.71645563
C   5.58003100   4.28277905   3.94009264
C   6.84534215   4.25109791   4.79193330
O   6.47311073   7.57748703   3.75099490
H   6.51491898   4.28646936   5.77379378
H   4.73323117   3.75189389   4.43740571
H   5.87689875   3.96217398   2.91006810
H   7.56688806   3.47179180   4.58299597
O   9.30000000   0.00000000   0.00000000
C  10.10686406   1.09372612  -0.27914155
O  11.21435446   0.83151045  -1.03957836
C  11.15194371  -0.54696520  -1.36085170
C  10.00478161  -1.15117239  -0.50867824
O   9.83071976   2.30698003  -0.06599672
H   9.26041181  -1.78379238  -0.96700915
H  11.00785755  -0.65044686  -2.47887439
H  12.11729667  -1.01773392  -1.06099133
H  10.36977518  -1.79309900   0.34562544
O  16.72971898   0.00000000   0.15132048
C  15.71549765   0.86313401  -0.28872741
O  14.57257127   0.15114587  -0.57454437
C  14.88003100  -1.26722095  -0.35090736
C  16.14534215  -1.29890209   0.50093330
O  15.77311073   2.02748703  -0.54000510
H  15.81491898  -1.26353064   1.48279378
H  14.03323117  -1.79810611   0.14640571
H  15.17689875  -1.58782602  -1.38093190
H  16.86688806  -2.07820820   0.29199597
O   9.30000000   5.55000000   0.00000000
C  10.10686406   6.64372612  -0.27914155
O  11.21435446   6.38151045  -1.03957836
C  11.15194371   5.00303480  -1.36085170
C  10.00478161   4.39882761  -0.50867824
O   9.83071976   7.85698003  -0.06599672
H   9.26041181   3.76620762  -0.96700915
H  11.00785755   4.89955314  -2.47887439
H  12.11729667   4.53226608  -1.06099133
H  10.36977518   3.75690100   0.34562544
O  16.72971898   5.55000000   0.15132048
C  15.71549765   6.41313401  -0.28872741
O  14.57257127   5.70114587  -0.57454437
C  14.88003100   4.28277905  -0.35090736
C  16.14534215   4.25109791   0.50093330
O  15.77311073   7.57748703  -0.54000510
H  15.81491898   4.28646936   1.48279378
H  14.03323117   3.75189389   0.14640571
H  15.17689875   3.96217398  -1.38093190
H  16.86688806   3.47179180   0.29199597
O   9.30000000   0.00000000   4.29100000
C  10.10686406   1.09372612   4.01185845
O  11.21435446   0.83151045   3.25142164
C  11.15194371  -0.54696520   2.93014830
C  10.00478161  -1.15117239   3.78232176
O   9.83071976   2.30698003   4.22500328
H   9.26041181  -1.78379238   3.32399085
H  11.00785755  -0.65044686   1.81212561
H  12.11729667  -1.01773392   3.23000867
H  10.36977518  -1.79309900   4.63662544
O  16.72971898   0.00000000   4.44232048
C  15.71549765   0.86313401   4.00227259
O  14.57257127   0.15114587   3.71645563
C  14.88003100  -1.26722095   3.94009264
C  16.14534215  -1.29890209   4.79193330
O  15.77311073   2.02748703   3.75099490
H  15.81491898  -1.26353064   5.77379378
H  14.03323117  -1.79810611   4.43740571
H  15.17689875  -1.58782602   2.91006810
H  16.86688806  -2.07820820   4.58299597
O   9.30000000   5.55000000   4.29100000
C  10.10686406   6.64372612   4.01185845
O  11.21435446   6.38151045   3.25142164
C  11.15194371   5.00303480   2.93014830
C  10.00478161   4.39882761   3.78232176
O   9.83071976   7.85698003   4.22500328
H   9.26041181   3.76620762   3.32399085
H  11.00785755   4.89955314   1.81212561
H  12.11729667   4.53226608   3.23000867
H  10.36977518   3.75690100   4.63662544
O  16.72971898   5.55000000   4.44232048
C  15.71549765   6.41313401   4.00227259
O  14.57257127   5.70114587   3.71645563
C  14.88003100   4.28277905   3.94009264
C  16.14534215   4.25109791   4.79193330
O  15.77311073   7.57748703   3.75099490
H  15.81491898   4.28646936   5.77379378
H  14.03323117   3.75189389   4.43740571
H  15.17689875   3.96217398   2.91006810
H  16.86688806   3.47179180   4.58299597
O   0.00000000  11.10000000   0.00000000
C   0.80686406  12.19372612  -0.27914155
O   1.91435446  11.93151045  -1.03957836
C   1.85194371  10.55303480  -1.36085170
C   0.70478161   9.94882761  -0.50867824
O   0.53071976  13.40698003  -0.06599672
H  -0.03958819   9.31620762  -0.96700915
H   1.70785755  10.44955314  -2.47887439
H   2.81729667  10.08226608  -1.06099133
H   1.06977518   9.30690100   0.34562544
O   7.42971898  11.10000000   0.15132048
C   6.41549765  11.96313401  -0.28872741
O   5.27257127  11.25114587  -0.57454437
C   5.58003100   9.83277905  -0.35090736
C   6.84534215   9.80109791   0.50093330
O   6.47311073  13.12748703  -0.54000510
H   6.51491898   9.83646936   1.48279378
H   4.73323117   9.30189389   0.14640571
H   5.87689875   9.51217398  -1.38093190
H   7.56688806   9.02179180   0.29199597
O   0.00000000  16.65000000   0.00000000
C   0.80686406  17.74372612  -0.27914155
O   1.91435446  17.48151045  -1.03957836
C   1.85194371  16.10303480  -1.36085170
C   0.70478161  15.49882761  -0.50867824
O   0.53071976  18.95698003  -0.06599672
H  -0.03958819  14.86620762  -0.96700915
H   1.70785755  15.99955314  -2.47887439
H   2.81729667  15.63226608  -1.06099133
H   1.06977518  14.85690100   0.34562544
O   7.42971898  16.65000000   0.15132048
C   6.41549765  17.51313401  -0.28872741
O   5.27257127  16.80114587  -0.57454437
C   5.58003100  15.38277905  -0.35090736
C   6.84534215  15.35109791   0.50093330
O   6.47311073  18.67748703  -0.54000510
H   6.51491898  15.38646936   1.48279378
H   4.73323117  14.85189389   0.14640571
H   5.87689875  15.06217398  -1.38093190
H   7.56688806  14.57179180   0.29199597
O   0.00000000  11.10000000   4.29100000
C   0.80686406  12.19372612   4.01185845
O   1.91435446  11.93151045   3.25142164
C   1.85194371  10.55303480   2.93014830
C   0.70478161   9.94882761   3.78232176
O   0.53071976  13.40698003   4.22500328
H  -0.03958819   9.31620762   3.32399085
H   1.70785755  10.44955314   1.81212561
H   2.81729667  10.08226608   3.23000867
H   1.06977518   9.30690100   4.63662544
O   7.42971898  11.10000000   4.44232048
C   6.41549765  11.96313401   4.00227259
O   5.27257127  11.25114587   3.71645563
C   5.58003100   9.83277905   3.94009264
C   6.84534215   9.80109791   4.79193330
O   6.47311073  13.12748703   3.75099490
H   6.51491898   9.83646936   5.77379378
H   4.73323117   9.30189389   4.43740571
H   5.87689875   9.51217398   2.91006810
H   7.56688806   9.02179180   4.58299597
O   0.00000000  16.65000000   4.29100000
C   0.80686406  17.74372612   4.01185845
O   1.91435446  17.48151045   3.25142164
C   1.85194371  16.10303480   2.93014830
C   0.70478161  15.49882761   3.78232176
O   0.53071976  18.95698003   4.22500328
H  -0.03958819  14.86620762   3.32399085
H   1.70785755  15.99955314   1.81212561
H   2.81729667  15.63226608   3.23000867
H   1.06977518  14.85690100   4.63662544
O   7.42971898  16.65000000   4.44232048
C   6.41549765  17.51313401   4.00227259
O   5.27257127  16.80114587   3.71645563
C   5.58003100  15.38277905   3.94009264
C   6.84534215  15.35109791   4.79193330
O   6.47311073  18.67748703   3.75099490
H   6.51491898  15.38646936   5.77379378
H   4.73323117  14.85189389   4.43740571
H   5.87689875  15.06217398   2.91006810
H   7.56688806  14.57179180   4.58299597
O   9.30000000  11.10000000   0.00000000
C  10.10686406  12.19372612  -0.27914155
O  11.21435446  11.93151045  -1.03957836
C  11.15194371  10.55303480  -1.36085170
C  10.00478161   9.94882761  -0.50867824
O   9.83071976  13.40698003  -0.06599672
H   9.26041181   9.31620762  -0.96700915
H  11.00785755  10.44955314  -2.47887439
H  12.11729667  10.08226608  -1.06099133
H  10.36977518   9.30690100   0.34562544
O  16.72971898  11.10000000   0.15132048
C  15.71549765  11.96313401  -0.28872741
O  14.57257127  11.25114587  -0.57454437
C  14.88003100   9.83277905  -0.35090736
C  16.14534215   9.80109791   0.50093330
O  15.77311073  13.12748703  -0.54000510
H  15.81491898   9.83646936   1.48279378
H  14.03323117   9.30189389   0.14640571
H  15.17689875   9.51217398  -1.38093190
H  16.86688806   9.02179180   0.29199597
O   9.30000000  16.65000000   0.00000000
C  10.10686406  17.74372612  -0.27914155
O  11.21435446  17.48151045  -1.03957836
C  11.15194371  16.10303480  -1.36085170
C  10.00478161  15.49882761  -0.50867824
O   9.83071976  18.95698003  -0.06599672
H   9.26041181  14.86620762  -0.96700915
H  11.00785755  15.99955314  -2.47887439
H  12.11729667  15.63226608  -1.06099133
H  10.36977518  14.85690100   0.34562544
O  16.72971898  16.65000000   0.15132048
C  15.71549765  17.51313401  -0.28872741
O  14.57257127  16.80114587  -0.57454437
C  14.88003100  15.38277905  -0.35090736
C  16.14534215  15.35109791   0.50093330
O  15.77311073  18.67748703  -0.54000510
H  15.81491898  15.38646936   1.48279378
H  14.03323117  14.85189389   0.14640571
H  15.17689875  15.06217398  -1.38093190
H  16.86688806  14.57179180   0.29199597
O   9.30000000  11.10000000   4.29100000
C  10.10686406  12.19372612   4.01185845
O  11.21435446  11.93151045   3.25142164
C  11.15194371  10.55303480   2.93014830
C  10.00478161   9.94882761   3.78232176
O   9.83071976  13.40698003   4.22500328
H   9.26041181   9.31620762   3.32399085
H  11.00785755  10.44955314   1.81212561
H  12.11729667  10.08226608   3.23000867
H  10.36977518   9.30690100   4.63662544
O  16.72971898  11.10000000   4.44232048
C  15.71549765  11.96313401   4.00227259
O  14.57257127  11.25114587   3.71645563
C  14.88003100   9.83277905   3.94009264
C  16.14534215   9.80109791   4.79193330
O  15.77311073  13.12748703   3.75099490
H  15.81491898   9.83646936   5.77379378
H  14.03323117   9.30189389   4.43740571
H  15.17689875   9.51217398   2.91006810
H  16.86688806   9.02179180   4.58299597
O   9.30000000  16.65000000   4.29100000
C  10.10686406  17.74372612   4.01185845
O  11.21435446  17.48151045   3.25142164
C  11.15194371  16.10303480   2.93014830
C  10.00478161  15.49882761   3.78232176
O   9.83071976  18.95698003   4.22500328
H   9.26041181  14.86620762   3.32399085
H  11.00785755  15.99955314   1.81212561
H  12.11729667  15.63226608   3.23000867
H  10.36977518  14.85690100   4.63662544
O  16.72971898  16.65000000   4.44232048
C  15.71549765  17.51313401   4.00227259
O  14.57257127  16.80114587   3.71645563
C  14.88003100  15.38277905   3.94009264
C  16.14534215  15.35109791   4.79193330
O  15.77311073  18.67748703   3.75099490
H  15.81491898  15.38646936   5.77379378
H  14.03323117  14.85189389   4.43740571
H  15.17689875  15.06217398   2.91006810
H  16.86688806  14.57179180   4.58299597