500
cell 17.689 17.689 17.689
O 4.3700453818 18.7562628281 10.3767693588
C 5.0154562950 17.5601394302 10.0976278119
O 4.3061467412 16.6700989737 9.3371909988
C 3.0858017877 17.3141862557 9.0159176565
C 3.0282688470 18.6094612016 9.8680911205
O 6.2306668165 17.2927368754 10.3107726429
H 2.7733274531 19.5524878913 9.4097602080
H 3.0536162997 17.4886378897 7.8978949692
H 2.2484298850 16.6416256190 9.3157780304
H 2.2919975081 18.5529404055 10.7223947940
O 1.2028251537 12.0354414439 10.5280898360
C 2.4159574153 12.5849460583 10.0880419506
O 2.2591216659 13.9223354434 9.8022249920
C 0.8450193636 14.2488482179 10.0258619975
C 0.2769706415 13.1177705702 10.8777026608
O 3.4446552023 12.0364771801 9.8367642557
H 0.4498234972 13.4015882978 11.8595631412
H 0.7257708659 15.2411630890 10.5231750646
H 0.4284524655 14.1169767075 8.9958374584
H -0.7355672465 12.7972810416 10.6687653289
O 14.2267734804 3.8415843983 11.6636030504
C 13.4703311049 4.6907200963 12.4152605076
O 12.9258790625 4.0856547191 13.4679694749
C 13.0955771629 2.6404757154 13.2964434787
C 14.2430268181 2.5471921878 12.3406659904
O 13.3275844190 5.8381931288 12.1581516907
H 15.1665650795 2.3902459698 12.8755408344
H 13.2953766673 2.2795830815 14.3196408995
H 12.1193500665 2.3750308190 12.9324960551
H 14.1219669606 1.7868562397 11.5446090286
O 8.3861967201 13.7503652619 8.9450979881
C 7.9022542485 13.4277051679 10.1257595555
O 6.5181529117 13.2523954317 10.1441334664
C 6.0745155983 13.7951474263 8.8551187659
C 7.3013884372 13.6805753389 7.9465899494
O 8.5202045624 13.1104604598 11.1138379999
H 7.3399454510 12.7238540547 7.4877279591
H 5.2713740015 13.1011432165 8.4669773314
H 5.7703964121 14.8330150094 9.0012998293
H 7.4748496552 14.5598863001 7.2058580838
O 6.0302244988 2.9372070996 6.8146437575
C 5.5804984983 4.0504585280 6.1409435472
O 5.2851083136 5.0313632807 7.0305814292
C 5.3395595470 4.5232141810 8.3676169131
C 6.2297744648 3.2497250515 8.2616344548
O 5.5200296832 4.2155493477 4.9426003705
H 7.3373487277 3.4048616786 8.3544532311
H 5.8107620151 5.2688968273 9.0166099501
H 4.3415882747 4.2630509541 8.7529932965
H 5.8699601980 2.3351231228 8.8018391016
O 1.0967943977 5.0587573274 16.8654038492
C 1.0191239310 5.4434627540 18.1464558820
O 0.1311867669 6.5322830478 18.3347928768
C -0.5671416331 6.7112947827 17.0784963052
C 0.2416580341 5.9248382533 16.0840387970
O 1.6622448295 4.9100186234 19.0401158496
H -0.3851804445 5.3161431246 15.4269930294
H -1.5872383033 6.1902115848 17.2723040968
H -0.7449579002 7.7299473721 16.8081632193
H 0.8554099806 6.5836419671 15.4058781748
O 8.6020028679 14.7944516497 18.3659751408
C 9.5209364118 15.6583409824 17.8459016433
O 9.2855551356 16.8958658100 18.1875337962
C 8.3326642904 16.9329495084 19.3671431187
C 7.8883540128 15.4905759651 19.3977017127
O 10.3290785963 15.2359959368 17.0922495938
H 8.2052612025 14.9447418128 20.3475214960
H 8.8793967698 17.1323837068 20.2326915904
H 7.4456247253 17.6423648348 19.2156276246
H 6.8307510285 15.2922221345 19.0491289596
O 0.0715026291 17.7006987041 8.9064363198
C -0.5203687547 18.3839044575 9.9682352650
O -1.7189818941 17.8774743793 10.2955439691
C -1.8885467993 16.6357689622 9.5127625760
C -0.9945724931 16.8404207259 8.3035334009
O -0.0433521854 19.2720186392 10.6553054012
H -0.5256160670 15.9408259094 7.8704648277
H -1.6581780438 15.8363100087 10.1723208518
H -2.9698904891 16.5630424510 9.2912157783
H -1.4109065750 17.3179303676 7.4107004865
O 7.7242417108 12.6185388341 16.1157661918
C 6.5641780988 13.2674680198 16.3110790507
O 5.9729575539 12.9767591649 17.4985412121
C 6.5907752843 11.8391005278 18.0511394018
C 7.9208724015 11.6796639580 17.2439307490
O 6.1718194199 14.2283747013 15.6236513948
H 8.7949608014 11.9408290501 17.7919241259
H 6.8618882000 12.0106656170 19.1171041147
H 5.9658402431 10.9749992214 17.8188439441
H 8.0184961235 10.7011896084 16.7908431429
O 4.3716951661 9.4667452699 4.8570355370
C 5.3274308536 10.1771259578 5.5193585920
O 6.4365722969 10.3323965325 4.7451252745
C 6.1491698680 9.9346185179 3.4212648982
C 5.0245718837 8.9464239090 3.6423902633
O 5.2277200494 10.5357048083 6.6882066929
H 4.3161424404 8.9165161745 2.8297290353
H 5.7589609569 10.7547202871 2.7611824453
H 7.0267111989 9.4311975109 3.0938407945
H 5.4061184781 7.9273676393 3.7288441878
O 2.4190012867 17.3410332551 17.6965406902
C 3.1013231773 17.0554012833 18.8380239029
O 4.1664230341 16.2246984521 18.5728195245
C 4.3525788848 16.1596835366 17.1018570105
C 3.1921945224 17.0223187412 16.5115068699
O 2.7075939183 17.3683528211 19.9733953447
H 3.4467562279 18.0027856297 16.0722459663
H 5.3518844781 16.5779987087 16.9149181753
H 4.3715244592 15.1077337490 16.7720078494
H 2.6280789263 16.4298902241 15.7294230702
O 1.8653507992 2.5846345069 4.6665794486
C 2.2781056060 2.0325950114 5.8542904135
O 1.6520187814 0.8146603089 6.0366130448
C 1.1859266431 0.3754231118 4.7533667572
C 0.8180544467 1.7178488088 4.0999428449
O 3.0908219310 2.5669408110 6.5426413797
H 0.8067429821 1.7416016900 2.9826656318
H 1.9836875460 -0.1929356392 4.2251072572
H 0.2762840509 -0.2476470569 4.8648951449
H -0.1906532342 2.0818269574 4.4383543653
O 6.6196490698 7.8595262373 8.3023131905
C 7.1721400426 9.0439185796 8.6865064763
O 8.1549988746 9.5083539523 7.8829864337
C 8.5217256676 8.4618592019 6.9301957407
C 7.3943638405 7.4470299899 7.0824831260
O 6.9214546416 9.6632459641 9.7250073625
H 6.7270581831 7.3594612835 6.2143371545
H 8.5845035854 8.8400427780 5.8964281233
H 9.5282411331 8.1770912147 7.2646384227
H 7.7342578571 6.4271859703 7.3766725406
O 10.6242726143 15.3232478964 13.6828692466
C 10.5776330119 16.6127707861 14.0414735334
O 9.2420747602 16.9561304956 14.1852334392
C 8.3547886384 15.8938947713 13.9606400122
C 9.3113944244 14.6717190621 13.8020279790
O 11.5182531065 17.3231243770 14.2240105610
H 9.3665067882 13.9553817827 14.6842544768
H 7.8017705115 15.6924646835 14.8835322992
H 7.6058266807 16.1966518558 13.1666638539
H 9.1783528208 14.0813094414 12.8465826139
O 15.9268663348 2.6150704481 6.4391551152
C 14.7033292030 2.3588271770 6.8791994687
O 14.3940133479 3.2630232802 7.9681178839
C 15.5055213195 4.1556517093 8.1598972865
C 16.5513309689 3.5999586434 7.1898583324
O 13.9725310348 1.5119458405 6.4537456186
H 16.9111442103 4.3992569834 6.5266270819
H 15.2295308669 5.2671325181 7.8794579409
H 15.9229471806 4.0306241688 9.1202714916
H 17.3334988337 3.3061814922 7.8571931899
O 11.0631501908 4.8836511460 7.1099518670
C 10.5246813920 4.1772585929 8.1549243427
O 11.0460282632 4.5630668133 9.3644289615
C 12.0645970954 5.5111377721 9.1129130950
C 12.2167128553 5.5737133664 7.6022501632
O 9.5769540529 3.4049852745 7.9419141956
H 12.2015447677 6.5654558513 7.1703378496
H 11.7353047856 6.3935612835 9.5990964024
H 12.9819972118 5.0668687340 9.5271677710
H 13.1670647808 5.1287985319 7.3061989189
O -1.1115557891 7.7892515416 13.4821066977
C -0.8045770337 9.1395240111 13.6080972481
O -0.7047155696 9.7319786975 12.3703754461
C -0.7092204505 8.7115881125 11.3939208424
C -1.2967106427 7.4770060226 12.0640590043
O -0.5402904235 9.6763718695 14.6776405805
H -2.3620204564 7.3893957805 11.8098963006
H -1.3112220062 8.9327770258 10.5012509121
H 0.3465046905 8.6867291957 11.0755409214
H -0.7616690560 6.5316974924 11.9485105743
O 11.7490679751 9.7242354207 14.1416319698
C 10.4927436933 10.0771791836 14.4313279734
O 9.9287437910 10.8930711025 13.4992087119
C 11.0301612380 11.3506641092 12.5722201723
C 11.9999332542 10.1526771957 12.7365681760
O 9.9199643677 9.7945274248 15.4741765382
H 11.8082133895 9.3685941542 12.0241256582
H 10.7006790686 11.4901719442 11.5442667695
H 11.2705047756 12.3397500083 12.9992035867
H 13.0881885825 10.4324478498 12.7758230353
O 9.1219828826 7.2178101385 9.9208942197
C 9.5796856495 8.0287134112 10.8604751923
O 9.5657913086 7.5387087268 12.0977432549
C 9.1377679042 6.0804461026 11.9350743106
C 8.4382142923 6.1489405643 10.5804958673
O 9.9536426918 9.1835776445 10.6541484718
H 8.6756277078 5.2689814705 10.0083676650
H 10.0354645621 5.5306148332 11.9546639873
H 8.4535080452 5.7653684567 12.7288543488
H 7.3474354171 6.2539533572 10.6881126987
O 2.2896525114 6.5280004197 6.1437882495
C 1.6170869233 7.6644545143 5.9998978568
O 1.1673337456 7.8879857169 4.7325513815
C 1.5015495501 6.7603070650 3.9429495986
C 2.2669737187 5.8017324892 4.8443955123
O 1.4630489413 8.5448951013 6.7796328065
H 1.7714252803 4.7973390056 4.9757658332
H 0.5365023180 6.3562122804 3.6704408077
H 1.9659636171 7.0981847528 3.0597497614
H 3.2996400320 5.6286285329 4.5408978595
O 6.7822509453 17.1190501847 6.2603950849
C 7.4029810966 17.5749780047 5.1349131409
O 6.5260258777 17.6905628846 4.0731868617
C 5.1599466558 17.7037731656 4.5588745926
C 5.3476010503 17.2197724462 6.0318349368
O 8.5440399441 17.9422511481 5.0017263826
H 5.0304554932 17.9787738364 6.7810654989
H 4.7448165696 18.7288966523 4.4584262600
H 4.5530155600 17.0229495217 3.9787472779
H 4.8881120523 16.2812990130 6.2264604301
O 0.9705843359 12.7662711390 15.7082711206
C 1.5409629597 13.8280919928 16.2391352938
O 0.7222529614 14.8820697024 16.0883546359
C -0.2768065349 14.5469489315 15.0346071381
C -0.3774260377 12.9935758979 15.1925518115
O 2.6201808339 13.7759540158 16.7598479568
H -1.1647403930 12.8344423584 15.9456837503
H -1.1555726601 15.1759910809 15.2454424902
H 0.1542377364 14.7730235747 14.0342777765
H -0.3944113210 12.4732464042 14.2917853524
O 11.7103686794 15.7954208246 4.5164270224
C 11.3464535322 16.2220391049 3.3348379628
O 11.4925084862 17.5525433849 3.0759895755
C 11.9398617345 18.1509748996 4.3724692274
C 12.1883580406 16.9268848543 5.2952959150
O 10.8937617809 15.4021289979 2.5564807129
H 13.2930441068 16.7396715245 5.3850065274
H 12.8090424306 18.7447173178 4.2293035348
H 11.0330693412 18.7477460851 4.7948545339
H 11.7035379217 17.0468630713 6.2752562685
O 5.6787254893 11.2290693700 13.8853619501
C 5.9966613682 10.1031447269 14.6120464448
O 6.8261073808 9.3212952956 14.0209061825
C 6.9518350451 9.7747010557 12.6455034145
C 6.5306109719 11.2401384085 12.7130458515
O 5.6124215851 9.9361246555 15.7182144599
H 7.4095816223 11.8999567365 12.9004268911
H 7.9597892967 9.6867907274 12.2159589569
H 6.1901814214 9.3477753279 12.0056947404
H 5.9806781112 11.4959667999 11.8210183965
O 8.5337916960 4.9246393490 5.0490855489
C 8.1824274103 5.6028246105 3.9167625680
O 8.1139974555 4.8040389822 2.8137901034
C 8.5136636676 3.4344931360 3.2468020824
C 8.8335289580 3.5727796469 4.7356855518
O 7.9436584807 6.8103025989 3.9263355966
H 8.1479310320 2.9575806235 5.3463706271
H 7.6608422153 2.7682834295 3.0089289093
H 9.3563360713 3.1619229244 2.5924475700
H 9.8076752895 3.2888490552 5.0514463441
O 5.0437098210 2.8741713234 13.0416792760
C 5.8408765596 3.5512604152 12.2174370964
O 7.0125418384 2.9642061355 12.0283212539
C 6.9964874331 1.6859199688 12.7527282987
C 5.6839791158 1.7268980702 13.5574056418
O 5.5263820100 4.5881572333 11.6354785599
H 5.1299068082 0.7808978574 13.2996995401
H 7.0716087734 0.8448123088 12.0425974352
H 7.8905932194 1.7333239388 13.3698099461
H 5.7142993384 1.8861081718 14.6906220158
O 16.2685878242 1.7744494308 14.9654433383
C 15.9605078373 2.7981028739 15.7580572404
O 16.5454709210 2.6569354959 17.0475069784
C 17.2765758361 1.3709555803 17.0567295097
C 17.3724451026 0.9832125391 15.5256328417
O 15.3074455173 3.8242157072 15.4989755910
H 18.3424333128 1.3436758338 15.0805283310
H 18.2630645506 1.5296850595 17.4887201072
H 16.6783865931 0.6650980968 17.6447581022
H 17.1308797859 -0.1010605858 15.3366024603
O 3.8832492540 15.9523758620 12.2689421504
C 2.5832992567 15.6384771341 12.6610879120
O 2.5769773586 14.4013042887 13.2408837456
C 3.8266365665 13.7120307861 13.0500416936
C 4.7731970841 14.8286982535 12.6474957352
O 1.6686213569 16.4142049933 12.5338062295
H 5.3975394155 15.2234882474 13.4920471499
H 4.0491209945 13.2311707435 14.0428226475
H 3.7442821359 12.9119194833 12.2694363558
H 5.2848473317 14.6032601863 11.7321886354
O 11.9034881098 7.2190807374 4.5919136110
C 12.7269973437 8.2488727241 4.6629845329
O 13.0744736823 8.7726827399 3.4251241302
C 12.4546924408 7.9427958471 2.4065869222
C 11.5374852033 7.0296875542 3.1861056632
O 13.1949545272 8.6788397082 5.7302945498
H 10.5109010107 7.3541030540 2.9972392053
H 11.8548792455 8.5255481506 1.7058873573
H 13.2021420211 7.4077512102 1.8511139574
H 11.6331070381 5.9679293254 2.9737936447
O 3.6243873876 14.6887648655 3.5655796095
C 4.8013448230 14.0417865245 3.7731930715
O 4.8424367866 12.9054954940 3.0907027906
C 3.6808704922 12.7908702041 2.1920957829
C 2.8643589173 13.9621546002 2.5526319518
O 5.7398221446 14.4140203861 4.4391941597
H 2.7227156288 14.6813963595 1.7473228928
H 4.0201071797 12.7448956245 1.1345053894
H 3.3014716413 11.7846221200 2.4478417750
H 1.8945479697 13.6258096500 2.9188695439
O 0.8606379773 12.3267893104 7.1245929963
C 0.7652652305 13.2509827037 6.2104804396
O 1.8635998267 13.3661520385 5.4676213117
C 2.8991930479 12.5271310038 6.0094046234
C 2.0130262236 11.5137978384 6.8258232900
O -0.2136714210 14.0358577843 6.1189321075
H 1.7236705030 10.6732931144 6.1918093103
H 3.4270052798 11.9193991255 5.2571697476
H 3.5563210312 13.2267688432 6.5311752949
H 2.4383049228 11.2178409309 7.8225520251
O 6.1794437389 3.5244628996 18.3637558114
C 5.7834065615 2.2938773546 17.9784505091
O 4.7197363214 1.9076138344 18.7267461062
C 4.1292630273 2.9999233500 19.4244860644
C 5.1714162848 4.0940489688 19.2942689672
O 6.3263075656 1.5869129013 17.1235656357
H 4.7745553117 5.0638530655 18.8947879710
H 3.1056513577 3.2427741671 18.9274644459
H 3.7612121031 2.6635444825 20.4222311325
H 5.7152665638 4.3183118960 20.2081771850
O 12.6170890835 11.8274521828 0.6700601928
C 13.8163451242 12.4852009948 0.2497591143
O 13.7954706616 12.8204777112 -0.9859473139
C 12.6374349171 12.2889013078 -1.7064358138
C 11.7180235688 11.8791287394 -0.5064058405
O 14.7454565171 12.6167262675 1.0074997086
H 10.9314778874 12.6198340340 -0.3866723499
H 12.1687193556 13.1891551620 -2.2092955895
H 12.8324168611 11.4754871388 -2.3937743811
H 11.3627342960 10.8211827163 -0.6327411515
O 7.7461940578 6.4316637806 -1.9479892644
C 8.8062615310 5.5681070633 -1.8377187902
O 9.5315184981 5.6965724731 -0.7069543216
C 8.8784759318 6.8198325213 0.0721404291
C 7.5141677497 7.0782648118 -0.6434957208
O 8.9632002844 4.6900319812 -2.7036156858
H 6.6723914744 6.6176751053 -0.1377865404
H 8.7691538072 6.4090878745 1.0785095123
H 9.6067498011 7.6223662063 -0.0286685319
H 7.2838531245 8.1280768353 -0.8888418729
O -0.4917502555 10.5181473922 3.8936914471
C 0.4334578667 10.3283410439 2.9360000868
O 0.0955261865 9.4202728590 1.9609323642
C -1.2317676409 8.9465422944 2.3230243570
C -1.7563147389 9.9454584016 3.3058248246
O 1.4372983053 10.9707711605 2.9223589059
H -2.3307609381 10.7733953081 2.8773711524
H -1.7732697064 9.0184523502 1.3667538876
H -1.1284531769 7.9171207303 2.5845841253
H -2.3292278086 9.5075802732 4.1185982419
O 10.5492142807 -0.6063629968 10.6973950697
C 11.6702174889 -0.1179144683 10.1179478393
O 11.4479964750 0.1204359156 8.8347094375
C 10.0440322827 -0.0013503621 8.4994678885
C 9.4891413956 -0.7731750063 9.7353439009
O 12.7372212919 0.0262297736 10.6890680682
H 8.4416945837 -0.5207681282 9.9884018732
H 9.6689270632 0.9698544851 8.2629875701
H 10.1148643059 -0.5617272319 7.5827967119
H 9.5370327843 -1.8516126653 9.4864911616
O 14.7073838577 14.5148572312 6.6540276323
C 15.0618103325 13.6965649505 7.6554480816
O 14.8742912142 12.4260235103 7.2802340890
C 14.6947560885 12.3915506555 5.8630202164
C 14.0835454228 13.7686711711 5.6128542828
O 15.3661230311 14.0516931847 8.7425542400
H 14.3022521545 14.2463826317 4.6355550482
H 15.6790269299 12.3482070240 5.3946990023
H 14.0533733179 11.5761023469 5.6396018116
H 12.9724482776 13.6730331140 5.7790827904
O 9.5577316762 11.4486896379 2.2329766449
C 9.6335532022 10.1714625578 2.7010975577
O 10.4247242061 10.0658682693 3.7939329791
C 10.9818207165 11.3731802694 4.1005257833
C 10.3674855551 12.3628252441 3.0586091099
O 9.0614059146 9.1955153669 2.1916690131
H 9.6625619902 13.0869310260 3.4336179559
H 10.6862864955 11.6456056235 5.0814153231
H 12.0635988805 11.2166890798 3.9731622232
H 11.1130687292 12.8167900402 2.4603919410
O 13.5283215279 17.7821732423 16.7010891234
C 14.3039107204 16.7915559046 16.1338149695
O 14.2864209064 15.6435231369 16.8414108035
C 13.3291781220 15.7047456841 17.8749048917
C 13.0397310981 17.2192741928 18.0541743844
O 15.0332715951 16.9881667683 15.1916775513
H 11.9858531098 17.4715829713 18.0692823716
H 12.4167732671 15.2273214968 17.6263789760
H 13.6747606692 15.2384183054 18.7733403290
H 13.7812682942 17.5844886491 18.7887215929
O 12.6218629239 7.6945876035 16.9756511151
C 13.6819269944 8.5264445238 16.9271733928
O 14.3421644754 8.2769675716 15.8239751182
C 13.8108751547 7.1385127699 15.0825258328
C 12.8967762886 6.5420043936 16.1390336715
O 13.8055606069 9.4255600811 17.7514998453
H 11.9631769690 6.1925829611 15.6891548575
H 13.2610754336 7.5655962425 14.2647980489
H 14.5936677156 6.4937888115 14.7069872232
H 13.4119780387 5.8244648317 16.8637908539
O 15.5472818095 4.2230264282 4.0326690381
C 15.5261726047 5.5603056964 3.7346057813
O 15.0124880244 5.7166327445 2.4456530852
C 15.0238748982 4.5007977466 1.7267325236
C 15.5405967071 3.4447985312 2.7949394220
O 15.9171533187 6.4359981618 4.4859890725
H 14.9801458882 2.5613279179 2.7970357169
H 14.0214101390 4.1902950990 1.3486851006
H 15.6917550266 4.6255088732 0.8042202425
H 16.6319173440 3.0693188895 2.6374815814
O 12.2310380226 3.4943592764 17.6807083611
C 11.5980704984 2.9754580964 18.7677256586
O 10.6672342618 2.0326955996 18.3713440260
C 10.4689757908 2.2488239074 16.9116677443
C 11.7437208534 2.9524261847 16.4308451653
O 11.8300178616 3.1624794074 19.9770510793
H 12.4247588194 2.2137207269 15.9283700435
H 10.2957739249 1.2149873549 16.6051358440
H 9.5725343449 2.8386511441 16.7375648514
H 11.5071507998 3.7828058216 15.8177651929
O 15.0892584020 14.7412756555 12.9114248865
C 14.7009839177 13.4198162144 12.5581220229
O 13.5741860663 13.4284743705 11.7302957832
C 13.2124388531 14.8760615677 11.3716920810
C 14.0442961826 15.6746472437 12.4315780250
O 15.2177077489 12.3574295569 12.9013762416
H 14.4684448912 16.5843928663 12.0442055138
H 13.6287507791 15.1167735834 10.4128644488
H 12.1223359552 14.9654523428 11.4530155888
H 13.4188624041 16.0077282817 13.2432868760
O 2.9712503835 8.2558902256 16.9671006013
C 3.9122901642 8.6303480614 17.8195566199
O 3.8152283793 9.9047009237 18.1915335607
C 2.7944253999 10.5319190483 17.3373670542
C 2.0834245666 9.3526610036 16.5594119194
O 4.7604959504 7.8876778960 18.3162275462
H 1.1349518828 9.0589153645 16.9767494834
H 2.1971309942 11.1854995066 17.9578909841
H 3.4000060130 10.9710762862 16.4865667761
H 2.1110385678 9.3873552487 15.3981112259
O 4.3557716374 3.6870121159 16.0912612592
C 3.2130914677 3.3811944373 15.3988362797
O 2.7899165519 4.4783591045 14.6789945084
C 3.6706396231 5.5937452105 14.9898407137
C 4.6693168527 5.0636522774 15.9921426158
O 2.6807531907 2.3122822954 15.3415402750
H 5.6790288853 5.1018356464 15.5628673632
H 4.0575212014 6.0405552475 14.0747633370
H 3.0943330677 6.2778491595 15.5983952912
H 4.5915283632 5.6523431974 16.9231901184
O 14.7785386809 9.6794446364 8.2565062092
C 14.1202640439 8.6171255626 8.6894190744
O 14.8194180017 7.4773497919 8.4485471284
C 16.0209161003 7.7736814940 7.7532420129
C 16.1199932705 9.2892525616 7.8261748911
O 13.1216203743 8.5646916256 9.3510491591
H 16.9422654382 9.5940809494 8.5667091092
H 16.7884499743 7.1349374595 8.1997097553
H 15.8796609305 7.3455148281 6.7205908429
H 16.5010885179 9.8342877564 6.9300897079
O 11.6987426099 12.7832153252 8.8509899103
C 11.0741071703 13.2028701821 7.7250365506
O 10.7244222945 12.1222769765 6.9629537565
C 10.8597390814 10.9243984163 7.7824732346
C 11.8977944909 11.3674847977 8.8109511993
O 10.7255623378 14.3192058635 7.5008495241
H 11.6584113498 10.9846809526 9.7719416074
H 9.9074253799 10.7760573297 8.2812692574
H 11.0753570519 10.0439042733 7.2070201236
H 12.9890252684 11.2747126659 8.5920303238
O 2.7694930750 7.0643004856 11.5217555235
C 2.7649820325 8.1470890192 12.3470640598
O 3.4645694718 9.1646422659 11.7916520412
C 3.5123900948 8.9157812794 10.2983166751
C 3.5017441865 7.4162506893 10.3313645601
O 2.3232981574 8.2251527134 13.5264360337
H 3.1006492669 6.9607931096 9.4852618159
H 2.7177758287 9.4917846232 9.8434170650
H 4.4933270263 9.2490888932 9.8896529243
H 4.5373360323 7.0633307722 10.5289856058
O 16.1241094002 15.9463043099 3.6099800820
C 15.9527376135 16.8702925119 2.6725878302
O 16.2505046244 16.3515851044 1.4169511707
C 17.0562271668 15.1444864899 1.6287433264
C 16.6589899390 14.7010125547 3.1033523612
O 15.5290160757 17.9333992017 2.8524412952
H 15.9396668725 13.8989467509 3.0799684522
H 16.8033530714 14.4743478598 0.8559924603
H 18.1307691161 15.4791256300 1.6223497508
H 17.5044136312 14.4764486635 3.7650738364
O 19.9261672624 4.0674626687 10.3516463873
C 18.8202130639 4.6537324574 9.9478214270
O 17.9649077171 4.8921257675 10.9810500785
C 18.4690539243 4.3112772030 12.1740919108
C 19.9467723686 4.0303580341 11.8610323563
O 18.5673028413 5.0406077956 8.7856303101
H 20.6579073838 4.7834369427 12.1618596284
H 18.3221121688 5.0737573930 13.0154615252
H 17.8508359052 3.4221925997 12.3512454117
H 20.2510164593 3.0262561646 12.1839696687
