80
cell  9.300 11.100  8.582
O   0.00000000   0.00000000   0.00000000
C   0.80686406   1.09372612  -0.27914155
O   1.91435446   0.83151045  -1.03957836
C   1.85194371  -0.54696520  -1.36085170
C   0.70478161  -1.15117239  -0.50867824
O   0.53071976   2.30698003  -0.06599672
H  -0.03958819  -1.78379238  -0.96700915
H   1.70785755  -0.65044686  -2.47887439
H   2.81729667  -1.01773392  -1.06099133
H   1.06977518  -1.79309900   0.34562544
O   7.42971898  -0.00000000   0.15132048
C   6.41549765   0.86313401  -0.28872741
O   5.27257127   0.15114587  -0.57454437
C   5.58003100  -1.26722095  -0.35090736
C   6.84534215  -1.29890209   0.50093330
O   6.47311073   2.02748703  -0.54000510
H   6.51491898  -1.26353064   1.48279378
H   4.73323117  -1.79810611   0.14640571
H   5.87689875  -1.58782602  -1.38093190
H   7.56688806  -2.07820820   0.29199597
O   0.00000000   5.55000000   0.00000000
C   0.80686406   6.64372612  -0.27914155
O   1.91435446   6.38151045  -1.03957836
C   1.85194371   5.00303480  -1.36085170
C   0.70478161   4.39882761  -0.50867824
O   0.53071976   7.85698003  -0.06599672
H  -0.03958819   3.76620762  -0.96700915
H   1.70785755   4.89955314  -2.47887439
H   2.81729667   4.53226608  -1.06099133
H   1.06977518   3.75690100   0.34562544
O   7.42971898   5.55000000   0.15132048
C   6.41549765   6.41313401  -0.28872741
O   5.27257127   5.70114587  -0.57454437
C   5.58003100   4.28277905  -0.35090736
C   6.84534215   4.25109791   0.50093330
O   6.47311073   7.57748703  -0.54000510
H   6.51491898   4.28646936   1.48279378
H   4.73323117   3.75189389   0.14640571
H   5.87689875   3.96217398  -1.38093190
H   7.56688806   3.47179180   0.29199597
O   0.00000000   0.00000000   4.29100000
C   0.80686406   1.09372612   4.01185845
O   1.91435446   0.83151045   3.25142164
C   1.85194371  -0.54696520   2.93014830
C   0.70478161  -1.15117239   3.78232176
O   0.53071976   2.30698003   4.22500328
H  -0.03958819  -1.78379238   3.32399085
H   1.70785755  -0.65044686   1.81212561
H   2.81729667  -1.01773392   3.23000867
H   1.06977518  -1.79309900   4.63662544
O   7.42971898   0.00000000   4.44232048
C   6.41549765   0.86313401   4.00227259
O   5.27257127   0.15114587   3.71645563
C   5.58003100  -1.26722095   3.94009264
C   6.84534215  -1.29890209   4.79193330
O   6.47311073   2.02748703   3.75099490
H   6.51491898  -1.26353064   5.77379378
H   4.73323117  -1.79810611   4.43740571
H   5.87689875  -1.58782602   2.91006810
H   7.56688806  -2.07820820   4.58299597
O   0.00000000   5.55000000   4.29100000
C   0.80686406   6.64372612   4.01185845
O   1.91435446   6.38151045   3.25142164
C   1.85194371   5.00303480   2.93014830
C   0.70478161   4.39882761   3.78232176
O   0.53071976   7.85698003   4.22500328
H  -0.03958819   3.76620762   3.32399085
H   1.70785755   4.89955314   1.81212561
H   2.81729667   4.53226608   3.23000867
H   1.06977518   3.75690100   4.63662544
O   7.42971898   5.55000000   4.44232048
C   6.41549765   6.41313401   4.00227259
O   5.27257127   5.70114587   3.71645563
C   5.58003100   4.28277905   3.94009264
C   6.84534215   4.25109791   4.79193330
O   6.47311073   7.57748703   3.75099490
H   6.51491898   4.28646936   5.77379378
H   4.73323117   3.75189389   4.43740571
H   5.87689875   3.96217398   2.91006810
H   7.56688806   3.47179180   4.58299597